Input file: WFN.h5
Output file: WFN_pseudo.h5
Protection window: 4.0 Ry
Superband width: 2.0 %

Original number of bands: 2500
Number of bands in the protection window: 106
110
[(106, 109)] 1
114
[(106, 109), (110, 113)] 2
118
[(106, 109), (110, 113), (114, 117)] 3
122
[(106, 109), (110, 113), (114, 117), (118, 121)] 4
126
[(106, 109), (110, 113), (114, 117), (118, 121), (122, 125)] 5
130
[(106, 109), (110, 113), (114, 117), (118, 121), (122, 125), (126, 129)] 6
134
[(106, 109), (110, 113), (114, 117), (118, 121), (122, 125), (126, 129), (130, 133)] 7
138
[(106, 109), (110, 113), (114, 117), (118, 121), (122, 125), (126, 129), (130, 133), (134, 137)] 8
143
[(106, 109), (110, 113), (114, 117), (118, 121), (122, 125), (126, 129), (130, 133), (134, 137), (138, 142)] 9
147
[(106, 109), (110, 113), (114, 117), (118, 121), (122, 125), (126, 129), (130, 133), (134, 137), (138, 142), (143, 146)] 10
151
[(106, 109), (110, 113), (114, 117), (118, 121), (122, 125), (126, 129), (130, 133), (134, 137), (138, 142), (143, 146), (147, 150)] 11
156
[(106, 109), (110, 113), (114, 117), (118, 121), (122, 125), (126, 129), (130, 133), (134, 137), (138, 142), (143, 146), (147, 150), (151, 155)] 12
161
[(106, 109), (110, 113), (114, 117), (118, 121), (122, 125), (126, 129), (130, 133), (134, 137), (138, 142), (143, 146), (147, 150), (151, 155), (156, 160)] 13
166
[(106, 109), (110, 113), (114, 117), (118, 121), (122, 125), (126, 129), (130, 133), (134, 137), (138, 142), (143, 146), (147, 150), (151, 155), (156, 160), (161, 165)] 14
171
[(106, 109), (110, 113), (114, 117), (118, 121), (122, 125), (126, 129), (130, 133), (134, 137), (138, 142), (143, 146), (147, 150), (151, 155), (156, 160), (161, 165), (166, 170)] 15
176
[(106, 109), (110, 113), (114, 117), (118, 121), (122, 125), (126, 129), (130, 133), (134, 137), (138, 142), (143, 146), (147, 150), (151, 155), (156, 160), (161, 165), (166, 170), (171, 175)] 16
182
[(106, 109), (110, 113), (114, 117), (118, 121), (122, 125), (126, 129), (130, 133), (134, 137), (138, 142), (143, 146), (147, 150), (151, 155), (156, 160), (161, 165), (166, 170), (171, 175), (176, 181)] 17
188
[(106, 109), (110, 113), (114, 117), (118, 121), (122, 125), (126, 129), (130, 133), (134, 137), (138, 142), (143, 146), (147, 150), (151, 155), (156, 160), (161, 165), (166, 170), (171, 175), (176, 181), (182, 187)] 18
194
[(106, 109), (110, 113), (114, 117), (118, 121), (122, 125), (126, 129), (130, 133), (134, 137), (138, 142), (143, 146), (147, 150), (151, 155), (156, 160), (161, 165), (166, 170), (171, 175), (176, 181), (182, 187), (188, 193)] 19
200
[(106, 109), (110, 113), (114, 117), (118, 121), (122, 125), (126, 129), (130, 133), (134, 137), (138, 142), (143, 146), (147, 150), (151, 155), (156, 160), (161, 165), (166, 170), (171, 175), (176, 181), (182, 187), (188, 193), (194, 199)] 20
207
[(106, 109), (110, 113), (114, 117), (118, 121), (122, 125), (126, 129), (130, 133), (134, 137), (138, 142), (143, 146), (147, 150), (151, 155), (156, 160), (161, 165), (166, 170), (171, 175), (176, 181), (182, 187), (188, 193), (194, 199), (200, 206)] 21
214
[(106, 109), (110, 113), (114, 117), (118, 121), (122, 125), (126, 129), (130, 133), (134, 137), (138, 142), (143, 146), (147, 150), (151, 155), (156, 160), (161, 165), (166, 170), (171, 175), (176, 181), (182, 187), (188, 193), (194, 199), (200, 206), (207, 213)] 22
221
[(106, 109), (110, 113), (114, 117), (118, 121), (122, 125), (126, 129), (130, 133), (134, 137), (138, 142), (143, 146), (147, 150), (151, 155), (156, 160), (161, 165), (166, 170), (171, 175), (176, 181), (182, 187), (188, 193), (194, 199), (200, 206), (207, 213), (214, 220)] 23
228
[(106, 109), (110, 113), (114, 117), (118, 121), (122, 125), (126, 129), (130, 133), (134, 137), (138, 142), (143, 146), (147, 150), (151, 155), (156, 160), (161, 165), (166, 170), (171, 175), (176, 181), (182, 187), (188, 193), (194, 199), (200, 206), (207, 213), (214, 220), (221, 227)] 24
235
[(106, 109), (110, 113), (114, 117), (118, 121), (122, 125), (126, 129), (130, 133), (134, 137), (138, 142), (143, 146), (147, 150), (151, 155), (156, 160), (161, 165), (166, 170), (171, 175), (176, 181), (182, 187), (188, 193), (194, 199), (200, 206), (207, 213), (214, 220), (221, 227), (228, 234)] 25
243
[(106, 109), (110, 113), (114, 117), (118, 121), (122, 125), (126, 129), (130, 133), (134, 137), (138, 142), (143, 146), (147, 150), (151, 155), (156, 160), (161, 165), (166, 170), (171, 175), (176, 181), (182, 187), (188, 193), (194, 199), (200, 206), (207, 213), (214, 220), (221, 227), (228, 234), (235, 242)] 26
251
[(106, 109), (110, 113), (114, 117), (118, 121), (122, 125), (126, 129), (130, 133), (134, 137), (138, 142), (143, 146), (147, 150), (151, 155), (156, 160), (161, 165), (166, 170), (171, 175), (176, 181), (182, 187), (188, 193), (194, 199), (200, 206), (207, 213), (214, 220), (221, 227), (228, 234), (235, 242), (243, 250)] 27
259
[(106, 109), (110, 113), (114, 117), (118, 121), (122, 125), (126, 129), (130, 133), (134, 137), (138, 142), (143, 146), (147, 150), (151, 155), (156, 160), (161, 165), (166, 170), (171, 175), (176, 181), (182, 187), (188, 193), (194, 199), (200, 206), (207, 213), (214, 220), (221, 227), (228, 234), (235, 242), (243, 250), (251, 258)] 28
267
[(106, 109), (110, 113), (114, 117), (118, 121), (122, 125), (126, 129), (130, 133), (134, 137), (138, 142), (143, 146), (147, 150), (151, 155), (156, 160), (161, 165), (166, 170), (171, 175), (176, 181), (182, 187), (188, 193), (194, 199), (200, 206), (207, 213), (214, 220), (221, 227), (228, 234), (235, 242), (243, 250), (251, 258), (259, 266)] 29
276
[(106, 109), (110, 113), (114, 117), (118, 121), (122, 125), (126, 129), (130, 133), (134, 137), (138, 142), (143, 146), (147, 150), (151, 155), (156, 160), (161, 165), (166, 170), (171, 175), (176, 181), (182, 187), (188, 193), (194, 199), (200, 206), (207, 213), (214, 220), (221, 227), (228, 234), (235, 242), (243, 250), (251, 258), (259, 266), (267, 275)] 30
284
[(106, 109), (110, 113), (114, 117), (118, 121), (122, 125), (126, 129), (130, 133), (134, 137), (138, 142), (143, 146), (147, 150), (151, 155), (156, 160), (161, 165), (166, 170), (171, 175), (176, 181), (182, 187), (188, 193), (194, 199), (200, 206), (207, 213), (214, 220), (221, 227), (228, 234), (235, 242), (243, 250), (251, 258), (259, 266), (267, 275), (276, 283)] 31
293
[(106, 109), (110, 113), (114, 117), (118, 121), (122, 125), (126, 129), (130, 133), (134, 137), (138, 142), (143, 146), (147, 150), (151, 155), (156, 160), (161, 165), (166, 170), (171, 175), (176, 181), (182, 187), (188, 193), (194, 199), (200, 206), (207, 213), (214, 220), (221, 227), (228, 234), (235, 242), (243, 250), (251, 258), (259, 266), (267, 275), (276, 283), (284, 292)] 32
302
[(106, 109), (110, 113), (114, 117), (118, 121), (122, 125), (126, 129), (130, 133), (134, 137), (138, 142), (143, 146), (147, 150), (151, 155), (156, 160), (161, 165), (166, 170), (171, 175), (176, 181), (182, 187), (188, 193), (194, 199), (200, 206), (207, 213), (214, 220), (221, 227), (228, 234), (235, 242), (243, 250), (251, 258), (259, 266), (267, 275), (276, 283), (284, 292), (293, 301)] 33
311
[(106, 109), (110, 113), (114, 117), (118, 121), (122, 125), (126, 129), (130, 133), (134, 137), (138, 142), (143, 146), (147, 150), (151, 155), (156, 160), (161, 165), (166, 170), (171, 175), (176, 181), (182, 187), (188, 193), (194, 199), (200, 206), (207, 213), (214, 220), (221, 227), (228, 234), (235, 242), (243, 250), (251, 258), (259, 266), (267, 275), (276, 283), (284, 292), (293, 301), (302, 310)] 34
320
[(106, 109), (110, 113), (114, 117), (118, 121), (122, 125), (126, 129), (130, 133), (134, 137), (138, 142), (143, 146), (147, 150), (151, 155), (156, 160), (161, 165), (166, 170), (171, 175), (176, 181), (182, 187), (188, 193), (194, 199), (200, 206), (207, 213), (214, 220), (221, 227), (228, 234), (235, 242), (243, 250), (251, 258), (259, 266), (267, 275), (276, 283), (284, 292), (293, 301), (302, 310), (311, 319)] 35
330
[(106, 109), (110, 113), (114, 117), (118, 121), (122, 125), (126, 129), (130, 133), (134, 137), (138, 142), (143, 146), (147, 150), (151, 155), (156, 160), (161, 165), (166, 170), (171, 175), (176, 181), (182, 187), (188, 193), (194, 199), (200, 206), (207, 213), (214, 220), (221, 227), (228, 234), (235, 242), (243, 250), (251, 258), (259, 266), (267, 275), (276, 283), (284, 292), (293, 301), (302, 310), (311, 319), (320, 329)] 36
340
[(106, 109), (110, 113), (114, 117), (118, 121), (122, 125), (126, 129), (130, 133), (134, 137), (138, 142), (143, 146), (147, 150), (151, 155), (156, 160), (161, 165), (166, 170), (171, 175), (176, 181), (182, 187), (188, 193), (194, 199), (200, 206), (207, 213), (214, 220), (221, 227), (228, 234), (235, 242), (243, 250), (251, 258), (259, 266), (267, 275), (276, 283), (284, 292), (293, 301), (302, 310), (311, 319), (320, 329), (330, 339)] 37
351
[(106, 109), (110, 113), (114, 117), (118, 121), (122, 125), (126, 129), (130, 133), (134, 137), (138, 142), (143, 146), (147, 150), (151, 155), (156, 160), (161, 165), (166, 170), (171, 175), (176, 181), (182, 187), (188, 193), (194, 199), (200, 206), (207, 213), (214, 220), (221, 227), (228, 234), (235, 242), (243, 250), (251, 258), (259, 266), (267, 275), (276, 283), (284, 292), (293, 301), (302, 310), (311, 319), (320, 329), (330, 339), (340, 350)] 38
362
[(106, 109), (110, 113), (114, 117), (118, 121), (122, 125), (126, 129), (130, 133), (134, 137), (138, 142), (143, 146), (147, 150), (151, 155), (156, 160), (161, 165), (166, 170), (171, 175), (176, 181), (182, 187), (188, 193), (194, 199), (200, 206), (207, 213), (214, 220), (221, 227), (228, 234), (235, 242), (243, 250), (251, 258), (259, 266), (267, 275), (276, 283), (284, 292), (293, 301), (302, 310), (311, 319), (320, 329), (330, 339), (340, 350), (351, 361)] 39
374
[(106, 109), (110, 113), (114, 117), (118, 121), (122, 125), (126, 129), (130, 133), (134, 137), (138, 142), (143, 146), (147, 150), (151, 155), (156, 160), (161, 165), (166, 170), (171, 175), (176, 181), (182, 187), (188, 193), (194, 199), (200, 206), (207, 213), (214, 220), (221, 227), (228, 234), (235, 242), (243, 250), (251, 258), (259, 266), (267, 275), (276, 283), (284, 292), (293, 301), (302, 310), (311, 319), (320, 329), (330, 339), (340, 350), (351, 361), (362, 373)] 40
385
[(106, 109), (110, 113), (114, 117), (118, 121), (122, 125), (126, 129), (130, 133), (134, 137), (138, 142), (143, 146), (147, 150), (151, 155), (156, 160), (161, 165), (166, 170), (171, 175), (176, 181), (182, 187), (188, 193), (194, 199), (200, 206), (207, 213), (214, 220), (221, 227), (228, 234), (235, 242), (243, 250), (251, 258), (259, 266), (267, 275), (276, 283), (284, 292), (293, 301), (302, 310), (311, 319), (320, 329), (330, 339), (340, 350), (351, 361), (362, 373), (374, 384)] 41
396
[(106, 109), (110, 113), (114, 117), (118, 121), (122, 125), (126, 129), (130, 133), (134, 137), (138, 142), (143, 146), (147, 150), (151, 155), (156, 160), (161, 165), (166, 170), (171, 175), (176, 181), (182, 187), (188, 193), (194, 199), (200, 206), (207, 213), (214, 220), (221, 227), (228, 234), (235, 242), (243, 250), (251, 258), (259, 266), (267, 275), (276, 283), (284, 292), (293, 301), (302, 310), (311, 319), (320, 329), (330, 339), (340, 350), (351, 361), (362, 373), (374, 384), (385, 395)] 42
408
[(106, 109), (110, 113), (114, 117), (118, 121), (122, 125), (126, 129), (130, 133), (134, 137), (138, 142), (143, 146), (147, 150), (151, 155), (156, 160), (161, 165), (166, 170), (171, 175), (176, 181), (182, 187), (188, 193), (194, 199), (200, 206), (207, 213), (214, 220), (221, 227), (228, 234), (235, 242), (243, 250), (251, 258), (259, 266), (267, 275), (276, 283), (284, 292), (293, 301), (302, 310), (311, 319), (320, 329), (330, 339), (340, 350), (351, 361), (362, 373), (374, 384), (385, 395), (396, 407)] 43
421
[(106, 109), (110, 113), (114, 117), (118, 121), (122, 125), (126, 129), (130, 133), (134, 137), (138, 142), (143, 146), (147, 150), (151, 155), (156, 160), (161, 165), (166, 170), (171, 175), (176, 181), (182, 187), (188, 193), (194, 199), (200, 206), (207, 213), (214, 220), (221, 227), (228, 234), (235, 242), (243, 250), (251, 258), (259, 266), (267, 275), (276, 283), (284, 292), (293, 301), (302, 310), (311, 319), (320, 329), (330, 339), (340, 350), (351, 361), (362, 373), (374, 384), (385, 395), (396, 407), (408, 420)] 44
434
[(106, 109), (110, 113), (114, 117), (118, 121), (122, 125), (126, 129), (130, 133), (134, 137), (138, 142), (143, 146), (147, 150), (151, 155), (156, 160), (161, 165), (166, 170), (171, 175), (176, 181), (182, 187), (188, 193), (194, 199), (200, 206), (207, 213), (214, 220), (221, 227), (228, 234), (235, 242), (243, 250), (251, 258), (259, 266), (267, 275), (276, 283), (284, 292), (293, 301), (302, 310), (311, 319), (320, 329), (330, 339), (340, 350), (351, 361), (362, 373), (374, 384), (385, 395), (396, 407), (408, 420), (421, 433)] 45
448
[(106, 109), (110, 113), (114, 117), (118, 121), (122, 125), (126, 129), (130, 133), (134, 137), (138, 142), (143, 146), (147, 150), (151, 155), (156, 160), (161, 165), (166, 170), (171, 175), (176, 181), (182, 187), (188, 193), (194, 199), (200, 206), (207, 213), (214, 220), (221, 227), (228, 234), (235, 242), (243, 250), (251, 258), (259, 266), (267, 275), (276, 283), (284, 292), (293, 301), (302, 310), (311, 319), (320, 329), (330, 339), (340, 350), (351, 361), (362, 373), (374, 384), (385, 395), (396, 407), (408, 420), (421, 433), (434, 447)] 46
462
[(106, 109), (110, 113), (114, 117), (118, 121), (122, 125), (126, 129), (130, 133), (134, 137), (138, 142), (143, 146), (147, 150), (151, 155), (156, 160), (161, 165), (166, 170), (171, 175), (176, 181), (182, 187), (188, 193), (194, 199), (200, 206), (207, 213), (214, 220), (221, 227), (228, 234), (235, 242), (243, 250), (251, 258), (259, 266), (267, 275), (276, 283), (284, 292), (293, 301), (302, 310), (311, 319), (320, 329), (330, 339), (340, 350), (351, 361), (362, 373), (374, 384), (385, 395), (396, 407), (408, 420), (421, 433), (434, 447), (448, 461)] 47
477
[(106, 109), (110, 113), (114, 117), (118, 121), (122, 125), (126, 129), (130, 133), (134, 137), (138, 142), (143, 146), (147, 150), (151, 155), (156, 160), (161, 165), (166, 170), (171, 175), (176, 181), (182, 187), (188, 193), (194, 199), (200, 206), (207, 213), (214, 220), (221, 227), (228, 234), (235, 242), (243, 250), (251, 258), (259, 266), (267, 275), (276, 283), (284, 292), (293, 301), (302, 310), (311, 319), (320, 329), (330, 339), (340, 350), (351, 361), (362, 373), (374, 384), (385, 395), (396, 407), (408, 420), (421, 433), (434, 447), (448, 461), (462, 476)] 48
492
[(106, 109), (110, 113), (114, 117), (118, 121), (122, 125), (126, 129), (130, 133), (134, 137), (138, 142), (143, 146), (147, 150), (151, 155), (156, 160), (161, 165), (166, 170), (171, 175), (176, 181), (182, 187), (188, 193), (194, 199), (200, 206), (207, 213), (214, 220), (221, 227), (228, 234), (235, 242), (243, 250), (251, 258), (259, 266), (267, 275), (276, 283), (284, 292), (293, 301), (302, 310), (311, 319), (320, 329), (330, 339), (340, 350), (351, 361), (362, 373), (374, 384), (385, 395), (396, 407), (408, 420), (421, 433), (434, 447), (448, 461), (462, 476), (477, 491)] 49
507
[(106, 109), (110, 113), (114, 117), (118, 121), (122, 125), (126, 129), (130, 133), (134, 137), (138, 142), (143, 146), (147, 150), (151, 155), (156, 160), (161, 165), (166, 170), (171, 175), (176, 181), (182, 187), (188, 193), (194, 199), (200, 206), (207, 213), (214, 220), (221, 227), (228, 234), (235, 242), (243, 250), (251, 258), (259, 266), (267, 275), (276, 283), (284, 292), (293, 301), (302, 310), (311, 319), (320, 329), (330, 339), (340, 350), (351, 361), (362, 373), (374, 384), (385, 395), (396, 407), (408, 420), (421, 433), (434, 447), (448, 461), (462, 476), (477, 491), (492, 506)] 50
523
[(106, 109), (110, 113), (114, 117), (118, 121), (122, 125), (126, 129), (130, 133), (134, 137), (138, 142), (143, 146), (147, 150), (151, 155), (156, 160), (161, 165), (166, 170), (171, 175), (176, 181), (182, 187), (188, 193), (194, 199), (200, 206), (207, 213), (214, 220), (221, 227), (228, 234), (235, 242), (243, 250), (251, 258), (259, 266), (267, 275), (276, 283), (284, 292), (293, 301), (302, 310), (311, 319), (320, 329), (330, 339), (340, 350), (351, 361), (362, 373), (374, 384), (385, 395), (396, 407), (408, 420), (421, 433), (434, 447), (448, 461), (462, 476), (477, 491), (492, 506), (507, 522)] 51
539
[(106, 109), (110, 113), (114, 117), (118, 121), (122, 125), (126, 129), (130, 133), (134, 137), (138, 142), (143, 146), (147, 150), (151, 155), (156, 160), (161, 165), (166, 170), (171, 175), (176, 181), (182, 187), (188, 193), (194, 199), (200, 206), (207, 213), (214, 220), (221, 227), (228, 234), (235, 242), (243, 250), (251, 258), (259, 266), (267, 275), (276, 283), (284, 292), (293, 301), (302, 310), (311, 319), (320, 329), (330, 339), (340, 350), (351, 361), (362, 373), (374, 384), (385, 395), (396, 407), (408, 420), (421, 433), (434, 447), (448, 461), (462, 476), (477, 491), (492, 506), (507, 522), (523, 538)] 52
556
[(106, 109), (110, 113), (114, 117), (118, 121), (122, 125), (126, 129), (130, 133), (134, 137), (138, 142), (143, 146), (147, 150), (151, 155), (156, 160), (161, 165), (166, 170), (171, 175), (176, 181), (182, 187), (188, 193), (194, 199), (200, 206), (207, 213), (214, 220), (221, 227), (228, 234), (235, 242), (243, 250), (251, 258), (259, 266), (267, 275), (276, 283), (284, 292), (293, 301), (302, 310), (311, 319), (320, 329), (330, 339), (340, 350), (351, 361), (362, 373), (374, 384), (385, 395), (396, 407), (408, 420), (421, 433), (434, 447), (448, 461), (462, 476), (477, 491), (492, 506), (507, 522), (523, 538), (539, 555)] 53
573
[(106, 109), (110, 113), (114, 117), (118, 121), (122, 125), (126, 129), (130, 133), (134, 137), (138, 142), (143, 146), (147, 150), (151, 155), (156, 160), (161, 165), (166, 170), (171, 175), (176, 181), (182, 187), (188, 193), (194, 199), (200, 206), (207, 213), (214, 220), (221, 227), (228, 234), (235, 242), (243, 250), (251, 258), (259, 266), (267, 275), (276, 283), (284, 292), (293, 301), (302, 310), (311, 319), (320, 329), (330, 339), (340, 350), (351, 361), (362, 373), (374, 384), (385, 395), (396, 407), (408, 420), (421, 433), (434, 447), (448, 461), (462, 476), (477, 491), (492, 506), (507, 522), (523, 538), (539, 555), (556, 572)] 54
590
[(106, 109), (110, 113), (114, 117), (118, 121), (122, 125), (126, 129), (130, 133), (134, 137), (138, 142), (143, 146), (147, 150), (151, 155), (156, 160), (161, 165), (166, 170), (171, 175), (176, 181), (182, 187), (188, 193), (194, 199), (200, 206), (207, 213), (214, 220), (221, 227), (228, 234), (235, 242), (243, 250), (251, 258), (259, 266), (267, 275), (276, 283), (284, 292), (293, 301), (302, 310), (311, 319), (320, 329), (330, 339), (340, 350), (351, 361), (362, 373), (374, 384), (385, 395), (396, 407), (408, 420), (421, 433), (434, 447), (448, 461), (462, 476), (477, 491), (492, 506), (507, 522), (523, 538), (539, 555), (556, 572), (573, 589)] 55
607
[(106, 109), (110, 113), (114, 117), (118, 121), (122, 125), (126, 129), (130, 133), (134, 137), (138, 142), (143, 146), (147, 150), (151, 155), (156, 160), (161, 165), (166, 170), (171, 175), (176, 181), (182, 187), (188, 193), (194, 199), (200, 206), (207, 213), (214, 220), (221, 227), (228, 234), (235, 242), (243, 250), (251, 258), (259, 266), (267, 275), (276, 283), (284, 292), (293, 301), (302, 310), (311, 319), (320, 329), (330, 339), (340, 350), (351, 361), (362, 373), (374, 384), (385, 395), (396, 407), (408, 420), (421, 433), (434, 447), (448, 461), (462, 476), (477, 491), (492, 506), (507, 522), (523, 538), (539, 555), (556, 572), (573, 589), (590, 606)] 56
625
[(106, 109), (110, 113), (114, 117), (118, 121), (122, 125), (126, 129), (130, 133), (134, 137), (138, 142), (143, 146), (147, 150), (151, 155), (156, 160), (161, 165), (166, 170), (171, 175), (176, 181), (182, 187), (188, 193), (194, 199), (200, 206), (207, 213), (214, 220), (221, 227), (228, 234), (235, 242), (243, 250), (251, 258), (259, 266), (267, 275), (276, 283), (284, 292), (293, 301), (302, 310), (311, 319), (320, 329), (330, 339), (340, 350), (351, 361), (362, 373), (374, 384), (385, 395), (396, 407), (408, 420), (421, 433), (434, 447), (448, 461), (462, 476), (477, 491), (492, 506), (507, 522), (523, 538), (539, 555), (556, 572), (573, 589), (590, 606), (607, 624)] 57
643
[(106, 109), (110, 113), (114, 117), (118, 121), (122, 125), (126, 129), (130, 133), (134, 137), (138, 142), (143, 146), (147, 150), (151, 155), (156, 160), (161, 165), (166, 170), (171, 175), (176, 181), (182, 187), (188, 193), (194, 199), (200, 206), (207, 213), (214, 220), (221, 227), (228, 234), (235, 242), (243, 250), (251, 258), (259, 266), (267, 275), (276, 283), (284, 292), (293, 301), (302, 310), (311, 319), (320, 329), (330, 339), (340, 350), (351, 361), (362, 373), (374, 384), (385, 395), (396, 407), (408, 420), (421, 433), (434, 447), (448, 461), (462, 476), (477, 491), (492, 506), (507, 522), (523, 538), (539, 555), (556, 572), (573, 589), (590, 606), (607, 624), (625, 642)] 58
663
[(106, 109), (110, 113), (114, 117), (118, 121), (122, 125), (126, 129), (130, 133), (134, 137), (138, 142), (143, 146), (147, 150), (151, 155), (156, 160), (161, 165), (166, 170), (171, 175), (176, 181), (182, 187), (188, 193), (194, 199), (200, 206), (207, 213), (214, 220), (221, 227), (228, 234), (235, 242), (243, 250), (251, 258), (259, 266), (267, 275), (276, 283), (284, 292), (293, 301), (302, 310), (311, 319), (320, 329), (330, 339), (340, 350), (351, 361), (362, 373), (374, 384), (385, 395), (396, 407), (408, 420), (421, 433), (434, 447), (448, 461), (462, 476), (477, 491), (492, 506), (507, 522), (523, 538), (539, 555), (556, 572), (573, 589), (590, 606), (607, 624), (625, 642), (643, 662)] 59
683
[(106, 109), (110, 113), (114, 117), (118, 121), (122, 125), (126, 129), (130, 133), (134, 137), (138, 142), (143, 146), (147, 150), (151, 155), (156, 160), (161, 165), (166, 170), (171, 175), (176, 181), (182, 187), (188, 193), (194, 199), (200, 206), (207, 213), (214, 220), (221, 227), (228, 234), (235, 242), (243, 250), (251, 258), (259, 266), (267, 275), (276, 283), (284, 292), (293, 301), (302, 310), (311, 319), (320, 329), (330, 339), (340, 350), (351, 361), (362, 373), (374, 384), (385, 395), (396, 407), (408, 420), (421, 433), (434, 447), (448, 461), (462, 476), (477, 491), (492, 506), (507, 522), (523, 538), (539, 555), (556, 572), (573, 589), (590, 606), (607, 624), (625, 642), (643, 662), (663, 682)] 60
704
[(106, 109), (110, 113), (114, 117), (118, 121), (122, 125), (126, 129), (130, 133), (134, 137), (138, 142), (143, 146), (147, 150), (151, 155), (156, 160), (161, 165), (166, 170), (171, 175), (176, 181), (182, 187), (188, 193), (194, 199), (200, 206), (207, 213), (214, 220), (221, 227), (228, 234), (235, 242), (243, 250), (251, 258), (259, 266), (267, 275), (276, 283), (284, 292), (293, 301), (302, 310), (311, 319), (320, 329), (330, 339), (340, 350), (351, 361), (362, 373), (374, 384), (385, 395), (396, 407), (408, 420), (421, 433), (434, 447), (448, 461), (462, 476), (477, 491), (492, 506), (507, 522), (523, 538), (539, 555), (556, 572), (573, 589), (590, 606), (607, 624), (625, 642), (643, 662), (663, 682), (683, 703)] 61
725
[(106, 109), (110, 113), (114, 117), (118, 121), (122, 125), (126, 129), (130, 133), (134, 137), (138, 142), (143, 146), (147, 150), (151, 155), (156, 160), (161, 165), (166, 170), (171, 175), (176, 181), (182, 187), (188, 193), (194, 199), (200, 206), (207, 213), (214, 220), (221, 227), (228, 234), (235, 242), (243, 250), (251, 258), (259, 266), (267, 275), (276, 283), (284, 292), (293, 301), (302, 310), (311, 319), (320, 329), (330, 339), (340, 350), (351, 361), (362, 373), (374, 384), (385, 395), (396, 407), (408, 420), (421, 433), (434, 447), (448, 461), (462, 476), (477, 491), (492, 506), (507, 522), (523, 538), (539, 555), (556, 572), (573, 589), (590, 606), (607, 624), (625, 642), (643, 662), (663, 682), (683, 703), (704, 724)] 62
748
[(106, 109), (110, 113), (114, 117), (118, 121), (122, 125), (126, 129), (130, 133), (134, 137), (138, 142), (143, 146), (147, 150), (151, 155), (156, 160), (161, 165), (166, 170), (171, 175), (176, 181), (182, 187), (188, 193), (194, 199), (200, 206), (207, 213), (214, 220), (221, 227), (228, 234), (235, 242), (243, 250), (251, 258), (259, 266), (267, 275), (276, 283), (284, 292), (293, 301), (302, 310), (311, 319), (320, 329), (330, 339), (340, 350), (351, 361), (362, 373), (374, 384), (385, 395), (396, 407), (408, 420), (421, 433), (434, 447), (448, 461), (462, 476), (477, 491), (492, 506), (507, 522), (523, 538), (539, 555), (556, 572), (573, 589), (590, 606), (607, 624), (625, 642), (643, 662), (663, 682), (683, 703), (704, 724), (725, 747)] 63
771
[(106, 109), (110, 113), (114, 117), (118, 121), (122, 125), (126, 129), (130, 133), (134, 137), (138, 142), (143, 146), (147, 150), (151, 155), (156, 160), (161, 165), (166, 170), (171, 175), (176, 181), (182, 187), (188, 193), (194, 199), (200, 206), (207, 213), (214, 220), (221, 227), (228, 234), (235, 242), (243, 250), (251, 258), (259, 266), (267, 275), (276, 283), (284, 292), (293, 301), (302, 310), (311, 319), (320, 329), (330, 339), (340, 350), (351, 361), (362, 373), (374, 384), (385, 395), (396, 407), (408, 420), (421, 433), (434, 447), (448, 461), (462, 476), (477, 491), (492, 506), (507, 522), (523, 538), (539, 555), (556, 572), (573, 589), (590, 606), (607, 624), (625, 642), (643, 662), (663, 682), (683, 703), (704, 724), (725, 747), (748, 770)] 64
795
[(106, 109), (110, 113), (114, 117), (118, 121), (122, 125), (126, 129), (130, 133), (134, 137), (138, 142), (143, 146), (147, 150), (151, 155), (156, 160), (161, 165), (166, 170), (171, 175), (176, 181), (182, 187), (188, 193), (194, 199), (200, 206), (207, 213), (214, 220), (221, 227), (228, 234), (235, 242), (243, 250), (251, 258), (259, 266), (267, 275), (276, 283), (284, 292), (293, 301), (302, 310), (311, 319), (320, 329), (330, 339), (340, 350), (351, 361), (362, 373), (374, 384), (385, 395), (396, 407), (408, 420), (421, 433), (434, 447), (448, 461), (462, 476), (477, 491), (492, 506), (507, 522), (523, 538), (539, 555), (556, 572), (573, 589), (590, 606), (607, 624), (625, 642), (643, 662), (663, 682), (683, 703), (704, 724), (725, 747), (748, 770), (771, 794)] 65
820
[(106, 109), (110, 113), (114, 117), (118, 121), (122, 125), (126, 129), (130, 133), (134, 137), (138, 142), (143, 146), (147, 150), (151, 155), (156, 160), (161, 165), (166, 170), (171, 175), (176, 181), (182, 187), (188, 193), (194, 199), (200, 206), (207, 213), (214, 220), (221, 227), (228, 234), (235, 242), (243, 250), (251, 258), (259, 266), (267, 275), (276, 283), (284, 292), (293, 301), (302, 310), (311, 319), (320, 329), (330, 339), (340, 350), (351, 361), (362, 373), (374, 384), (385, 395), (396, 407), (408, 420), (421, 433), (434, 447), (448, 461), (462, 476), (477, 491), (492, 506), (507, 522), (523, 538), (539, 555), (556, 572), (573, 589), (590, 606), (607, 624), (625, 642), (643, 662), (663, 682), (683, 703), (704, 724), (725, 747), (748, 770), (771, 794), (795, 819)] 66
845
[(106, 109), (110, 113), (114, 117), (118, 121), (122, 125), (126, 129), (130, 133), (134, 137), (138, 142), (143, 146), (147, 150), (151, 155), (156, 160), (161, 165), (166, 170), (171, 175), (176, 181), (182, 187), (188, 193), (194, 199), (200, 206), (207, 213), (214, 220), (221, 227), (228, 234), (235, 242), (243, 250), (251, 258), (259, 266), (267, 275), (276, 283), (284, 292), (293, 301), (302, 310), (311, 319), (320, 329), (330, 339), (340, 350), (351, 361), (362, 373), (374, 384), (385, 395), (396, 407), (408, 420), (421, 433), (434, 447), (448, 461), (462, 476), (477, 491), (492, 506), (507, 522), (523, 538), (539, 555), (556, 572), (573, 589), (590, 606), (607, 624), (625, 642), (643, 662), (663, 682), (683, 703), (704, 724), (725, 747), (748, 770), (771, 794), (795, 819), (820, 844)] 67
871
[(106, 109), (110, 113), (114, 117), (118, 121), (122, 125), (126, 129), (130, 133), (134, 137), (138, 142), (143, 146), (147, 150), (151, 155), (156, 160), (161, 165), (166, 170), (171, 175), (176, 181), (182, 187), (188, 193), (194, 199), (200, 206), (207, 213), (214, 220), (221, 227), (228, 234), (235, 242), (243, 250), (251, 258), (259, 266), (267, 275), (276, 283), (284, 292), (293, 301), (302, 310), (311, 319), (320, 329), (330, 339), (340, 350), (351, 361), (362, 373), (374, 384), (385, 395), (396, 407), (408, 420), (421, 433), (434, 447), (448, 461), (462, 476), (477, 491), (492, 506), (507, 522), (523, 538), (539, 555), (556, 572), (573, 589), (590, 606), (607, 624), (625, 642), (643, 662), (663, 682), (683, 703), (704, 724), (725, 747), (748, 770), (771, 794), (795, 819), (820, 844), (845, 870)] 68
898
[(106, 109), (110, 113), (114, 117), (118, 121), (122, 125), (126, 129), (130, 133), (134, 137), (138, 142), (143, 146), (147, 150), (151, 155), (156, 160), (161, 165), (166, 170), (171, 175), (176, 181), (182, 187), (188, 193), (194, 199), (200, 206), (207, 213), (214, 220), (221, 227), (228, 234), (235, 242), (243, 250), (251, 258), (259, 266), (267, 275), (276, 283), (284, 292), (293, 301), (302, 310), (311, 319), (320, 329), (330, 339), (340, 350), (351, 361), (362, 373), (374, 384), (385, 395), (396, 407), (408, 420), (421, 433), (434, 447), (448, 461), (462, 476), (477, 491), (492, 506), (507, 522), (523, 538), (539, 555), (556, 572), (573, 589), (590, 606), (607, 624), (625, 642), (643, 662), (663, 682), (683, 703), (704, 724), (725, 747), (748, 770), (771, 794), (795, 819), (820, 844), (845, 870), (871, 897)] 69
925
[(106, 109), (110, 113), (114, 117), (118, 121), (122, 125), (126, 129), (130, 133), (134, 137), (138, 142), (143, 146), (147, 150), (151, 155), (156, 160), (161, 165), (166, 170), (171, 175), (176, 181), (182, 187), (188, 193), (194, 199), (200, 206), (207, 213), (214, 220), (221, 227), (228, 234), (235, 242), (243, 250), (251, 258), (259, 266), (267, 275), (276, 283), (284, 292), (293, 301), (302, 310), (311, 319), (320, 329), (330, 339), (340, 350), (351, 361), (362, 373), (374, 384), (385, 395), (396, 407), (408, 420), (421, 433), (434, 447), (448, 461), (462, 476), (477, 491), (492, 506), (507, 522), (523, 538), (539, 555), (556, 572), (573, 589), (590, 606), (607, 624), (625, 642), (643, 662), (663, 682), (683, 703), (704, 724), (725, 747), (748, 770), (771, 794), (795, 819), (820, 844), (845, 870), (871, 897), (898, 924)] 70
953
[(106, 109), (110, 113), (114, 117), (118, 121), (122, 125), (126, 129), (130, 133), (134, 137), (138, 142), (143, 146), (147, 150), (151, 155), (156, 160), (161, 165), (166, 170), (171, 175), (176, 181), (182, 187), (188, 193), (194, 199), (200, 206), (207, 213), (214, 220), (221, 227), (228, 234), (235, 242), (243, 250), (251, 258), (259, 266), (267, 275), (276, 283), (284, 292), (293, 301), (302, 310), (311, 319), (320, 329), (330, 339), (340, 350), (351, 361), (362, 373), (374, 384), (385, 395), (396, 407), (408, 420), (421, 433), (434, 447), (448, 461), (462, 476), (477, 491), (492, 506), (507, 522), (523, 538), (539, 555), (556, 572), (573, 589), (590, 606), (607, 624), (625, 642), (643, 662), (663, 682), (683, 703), (704, 724), (725, 747), (748, 770), (771, 794), (795, 819), (820, 844), (845, 870), (871, 897), (898, 924), (925, 952)] 71
982
[(106, 109), (110, 113), (114, 117), (118, 121), (122, 125), (126, 129), (130, 133), (134, 137), (138, 142), (143, 146), (147, 150), (151, 155), (156, 160), (161, 165), (166, 170), (171, 175), (176, 181), (182, 187), (188, 193), (194, 199), (200, 206), (207, 213), (214, 220), (221, 227), (228, 234), (235, 242), (243, 250), (251, 258), (259, 266), (267, 275), (276, 283), (284, 292), (293, 301), (302, 310), (311, 319), (320, 329), (330, 339), (340, 350), (351, 361), (362, 373), (374, 384), (385, 395), (396, 407), (408, 420), (421, 433), (434, 447), (448, 461), (462, 476), (477, 491), (492, 506), (507, 522), (523, 538), (539, 555), (556, 572), (573, 589), (590, 606), (607, 624), (625, 642), (643, 662), (663, 682), (683, 703), (704, 724), (725, 747), (748, 770), (771, 794), (795, 819), (820, 844), (845, 870), (871, 897), (898, 924), (925, 952), (953, 981)] 72
1012
[(106, 109), (110, 113), (114, 117), (118, 121), (122, 125), (126, 129), (130, 133), (134, 137), (138, 142), (143, 146), (147, 150), (151, 155), (156, 160), (161, 165), (166, 170), (171, 175), (176, 181), (182, 187), (188, 193), (194, 199), (200, 206), (207, 213), (214, 220), (221, 227), (228, 234), (235, 242), (243, 250), (251, 258), (259, 266), (267, 275), (276, 283), (284, 292), (293, 301), (302, 310), (311, 319), (320, 329), (330, 339), (340, 350), (351, 361), (362, 373), (374, 384), (385, 395), (396, 407), (408, 420), (421, 433), (434, 447), (448, 461), (462, 476), (477, 491), (492, 506), (507, 522), (523, 538), (539, 555), (556, 572), (573, 589), (590, 606), (607, 624), (625, 642), (643, 662), (663, 682), (683, 703), (704, 724), (725, 747), (748, 770), (771, 794), (795, 819), (820, 844), (845, 870), (871, 897), (898, 924), (925, 952), (953, 981), (982, 1011)] 73
1043
[(106, 109), (110, 113), (114, 117), (118, 121), (122, 125), (126, 129), (130, 133), (134, 137), (138, 142), (143, 146), (147, 150), (151, 155), (156, 160), (161, 165), (166, 170), (171, 175), (176, 181), (182, 187), (188, 193), (194, 199), (200, 206), (207, 213), (214, 220), (221, 227), (228, 234), (235, 242), (243, 250), (251, 258), (259, 266), (267, 275), (276, 283), (284, 292), (293, 301), (302, 310), (311, 319), (320, 329), (330, 339), (340, 350), (351, 361), (362, 373), (374, 384), (385, 395), (396, 407), (408, 420), (421, 433), (434, 447), (448, 461), (462, 476), (477, 491), (492, 506), (507, 522), (523, 538), (539, 555), (556, 572), (573, 589), (590, 606), (607, 624), (625, 642), (643, 662), (663, 682), (683, 703), (704, 724), (725, 747), (748, 770), (771, 794), (795, 819), (820, 844), (845, 870), (871, 897), (898, 924), (925, 952), (953, 981), (982, 1011), (1012, 1042)] 74
1075
[(106, 109), (110, 113), (114, 117), (118, 121), (122, 125), (126, 129), (130, 133), (134, 137), (138, 142), (143, 146), (147, 150), (151, 155), (156, 160), (161, 165), (166, 170), (171, 175), (176, 181), (182, 187), (188, 193), (194, 199), (200, 206), (207, 213), (214, 220), (221, 227), (228, 234), (235, 242), (243, 250), (251, 258), (259, 266), (267, 275), (276, 283), (284, 292), (293, 301), (302, 310), (311, 319), (320, 329), (330, 339), (340, 350), (351, 361), (362, 373), (374, 384), (385, 395), (396, 407), (408, 420), (421, 433), (434, 447), (448, 461), (462, 476), (477, 491), (492, 506), (507, 522), (523, 538), (539, 555), (556, 572), (573, 589), (590, 606), (607, 624), (625, 642), (643, 662), (663, 682), (683, 703), (704, 724), (725, 747), (748, 770), (771, 794), (795, 819), (820, 844), (845, 870), (871, 897), (898, 924), (925, 952), (953, 981), (982, 1011), (1012, 1042), (1043, 1074)] 75
1107
[(106, 109), (110, 113), (114, 117), (118, 121), (122, 125), (126, 129), (130, 133), (134, 137), (138, 142), (143, 146), (147, 150), (151, 155), (156, 160), (161, 165), (166, 170), (171, 175), (176, 181), (182, 187), (188, 193), (194, 199), (200, 206), (207, 213), (214, 220), (221, 227), (228, 234), (235, 242), (243, 250), (251, 258), (259, 266), (267, 275), (276, 283), (284, 292), (293, 301), (302, 310), (311, 319), (320, 329), (330, 339), (340, 350), (351, 361), (362, 373), (374, 384), (385, 395), (396, 407), (408, 420), (421, 433), (434, 447), (448, 461), (462, 476), (477, 491), (492, 506), (507, 522), (523, 538), (539, 555), (556, 572), (573, 589), (590, 606), (607, 624), (625, 642), (643, 662), (663, 682), (683, 703), (704, 724), (725, 747), (748, 770), (771, 794), (795, 819), (820, 844), (845, 870), (871, 897), (898, 924), (925, 952), (953, 981), (982, 1011), (1012, 1042), (1043, 1074), (1075, 1106)] 76
1140
[(106, 109), (110, 113), (114, 117), (118, 121), (122, 125), (126, 129), (130, 133), (134, 137), (138, 142), (143, 146), (147, 150), (151, 155), (156, 160), (161, 165), (166, 170), (171, 175), (176, 181), (182, 187), (188, 193), (194, 199), (200, 206), (207, 213), (214, 220), (221, 227), (228, 234), (235, 242), (243, 250), (251, 258), (259, 266), (267, 275), (276, 283), (284, 292), (293, 301), (302, 310), (311, 319), (320, 329), (330, 339), (340, 350), (351, 361), (362, 373), (374, 384), (385, 395), (396, 407), (408, 420), (421, 433), (434, 447), (448, 461), (462, 476), (477, 491), (492, 506), (507, 522), (523, 538), (539, 555), (556, 572), (573, 589), (590, 606), (607, 624), (625, 642), (643, 662), (663, 682), (683, 703), (704, 724), (725, 747), (748, 770), (771, 794), (795, 819), (820, 844), (845, 870), (871, 897), (898, 924), (925, 952), (953, 981), (982, 1011), (1012, 1042), (1043, 1074), (1075, 1106), (1107, 1139)] 77
1176
[(106, 109), (110, 113), (114, 117), (118, 121), (122, 125), (126, 129), (130, 133), (134, 137), (138, 142), (143, 146), (147, 150), (151, 155), (156, 160), (161, 165), (166, 170), (171, 175), (176, 181), (182, 187), (188, 193), (194, 199), (200, 206), (207, 213), (214, 220), (221, 227), (228, 234), (235, 242), (243, 250), (251, 258), (259, 266), (267, 275), (276, 283), (284, 292), (293, 301), (302, 310), (311, 319), (320, 329), (330, 339), (340, 350), (351, 361), (362, 373), (374, 384), (385, 395), (396, 407), (408, 420), (421, 433), (434, 447), (448, 461), (462, 476), (477, 491), (492, 506), (507, 522), (523, 538), (539, 555), (556, 572), (573, 589), (590, 606), (607, 624), (625, 642), (643, 662), (663, 682), (683, 703), (704, 724), (725, 747), (748, 770), (771, 794), (795, 819), (820, 844), (845, 870), (871, 897), (898, 924), (925, 952), (953, 981), (982, 1011), (1012, 1042), (1043, 1074), (1075, 1106), (1107, 1139), (1140, 1175)] 78
1212
[(106, 109), (110, 113), (114, 117), (118, 121), (122, 125), (126, 129), (130, 133), (134, 137), (138, 142), (143, 146), (147, 150), (151, 155), (156, 160), (161, 165), (166, 170), (171, 175), (176, 181), (182, 187), (188, 193), (194, 199), (200, 206), (207, 213), (214, 220), (221, 227), (228, 234), (235, 242), (243, 250), (251, 258), (259, 266), (267, 275), (276, 283), (284, 292), (293, 301), (302, 310), (311, 319), (320, 329), (330, 339), (340, 350), (351, 361), (362, 373), (374, 384), (385, 395), (396, 407), (408, 420), (421, 433), (434, 447), (448, 461), (462, 476), (477, 491), (492, 506), (507, 522), (523, 538), (539, 555), (556, 572), (573, 589), (590, 606), (607, 624), (625, 642), (643, 662), (663, 682), (683, 703), (704, 724), (725, 747), (748, 770), (771, 794), (795, 819), (820, 844), (845, 870), (871, 897), (898, 924), (925, 952), (953, 981), (982, 1011), (1012, 1042), (1043, 1074), (1075, 1106), (1107, 1139), (1140, 1175), (1176, 1211)] 79
1248
[(106, 109), (110, 113), (114, 117), (118, 121), (122, 125), (126, 129), (130, 133), (134, 137), (138, 142), (143, 146), (147, 150), (151, 155), (156, 160), (161, 165), (166, 170), (171, 175), (176, 181), (182, 187), (188, 193), (194, 199), (200, 206), (207, 213), (214, 220), (221, 227), (228, 234), (235, 242), (243, 250), (251, 258), (259, 266), (267, 275), (276, 283), (284, 292), (293, 301), (302, 310), (311, 319), (320, 329), (330, 339), (340, 350), (351, 361), (362, 373), (374, 384), (385, 395), (396, 407), (408, 420), (421, 433), (434, 447), (448, 461), (462, 476), (477, 491), (492, 506), (507, 522), (523, 538), (539, 555), (556, 572), (573, 589), (590, 606), (607, 624), (625, 642), (643, 662), (663, 682), (683, 703), (704, 724), (725, 747), (748, 770), (771, 794), (795, 819), (820, 844), (845, 870), (871, 897), (898, 924), (925, 952), (953, 981), (982, 1011), (1012, 1042), (1043, 1074), (1075, 1106), (1107, 1139), (1140, 1175), (1176, 1211), (1212, 1247)] 80
1288
[(106, 109), (110, 113), (114, 117), (118, 121), (122, 125), (126, 129), (130, 133), (134, 137), (138, 142), (143, 146), (147, 150), (151, 155), (156, 160), (161, 165), (166, 170), (171, 175), (176, 181), (182, 187), (188, 193), (194, 199), (200, 206), (207, 213), (214, 220), (221, 227), (228, 234), (235, 242), (243, 250), (251, 258), (259, 266), (267, 275), (276, 283), (284, 292), (293, 301), (302, 310), (311, 319), (320, 329), (330, 339), (340, 350), (351, 361), (362, 373), (374, 384), (385, 395), (396, 407), (408, 420), (421, 433), (434, 447), (448, 461), (462, 476), (477, 491), (492, 506), (507, 522), (523, 538), (539, 555), (556, 572), (573, 589), (590, 606), (607, 624), (625, 642), (643, 662), (663, 682), (683, 703), (704, 724), (725, 747), (748, 770), (771, 794), (795, 819), (820, 844), (845, 870), (871, 897), (898, 924), (925, 952), (953, 981), (982, 1011), (1012, 1042), (1043, 1074), (1075, 1106), (1107, 1139), (1140, 1175), (1176, 1211), (1212, 1247), (1248, 1287)] 81
1327
[(106, 109), (110, 113), (114, 117), (118, 121), (122, 125), (126, 129), (130, 133), (134, 137), (138, 142), (143, 146), (147, 150), (151, 155), (156, 160), (161, 165), (166, 170), (171, 175), (176, 181), (182, 187), (188, 193), (194, 199), (200, 206), (207, 213), (214, 220), (221, 227), (228, 234), (235, 242), (243, 250), (251, 258), (259, 266), (267, 275), (276, 283), (284, 292), (293, 301), (302, 310), (311, 319), (320, 329), (330, 339), (340, 350), (351, 361), (362, 373), (374, 384), (385, 395), (396, 407), (408, 420), (421, 433), (434, 447), (448, 461), (462, 476), (477, 491), (492, 506), (507, 522), (523, 538), (539, 555), (556, 572), (573, 589), (590, 606), (607, 624), (625, 642), (643, 662), (663, 682), (683, 703), (704, 724), (725, 747), (748, 770), (771, 794), (795, 819), (820, 844), (845, 870), (871, 897), (898, 924), (925, 952), (953, 981), (982, 1011), (1012, 1042), (1043, 1074), (1075, 1106), (1107, 1139), (1140, 1175), (1176, 1211), (1212, 1247), (1248, 1287), (1288, 1326)] 82
1367
[(106, 109), (110, 113), (114, 117), (118, 121), (122, 125), (126, 129), (130, 133), (134, 137), (138, 142), (143, 146), (147, 150), (151, 155), (156, 160), (161, 165), (166, 170), (171, 175), (176, 181), (182, 187), (188, 193), (194, 199), (200, 206), (207, 213), (214, 220), (221, 227), (228, 234), (235, 242), (243, 250), (251, 258), (259, 266), (267, 275), (276, 283), (284, 292), (293, 301), (302, 310), (311, 319), (320, 329), (330, 339), (340, 350), (351, 361), (362, 373), (374, 384), (385, 395), (396, 407), (408, 420), (421, 433), (434, 447), (448, 461), (462, 476), (477, 491), (492, 506), (507, 522), (523, 538), (539, 555), (556, 572), (573, 589), (590, 606), (607, 624), (625, 642), (643, 662), (663, 682), (683, 703), (704, 724), (725, 747), (748, 770), (771, 794), (795, 819), (820, 844), (845, 870), (871, 897), (898, 924), (925, 952), (953, 981), (982, 1011), (1012, 1042), (1043, 1074), (1075, 1106), (1107, 1139), (1140, 1175), (1176, 1211), (1212, 1247), (1248, 1287), (1288, 1326), (1327, 1366)] 83
1408
[(106, 109), (110, 113), (114, 117), (118, 121), (122, 125), (126, 129), (130, 133), (134, 137), (138, 142), (143, 146), (147, 150), (151, 155), (156, 160), (161, 165), (166, 170), (171, 175), (176, 181), (182, 187), (188, 193), (194, 199), (200, 206), (207, 213), (214, 220), (221, 227), (228, 234), (235, 242), (243, 250), (251, 258), (259, 266), (267, 275), (276, 283), (284, 292), (293, 301), (302, 310), (311, 319), (320, 329), (330, 339), (340, 350), (351, 361), (362, 373), (374, 384), (385, 395), (396, 407), (408, 420), (421, 433), (434, 447), (448, 461), (462, 476), (477, 491), (492, 506), (507, 522), (523, 538), (539, 555), (556, 572), (573, 589), (590, 606), (607, 624), (625, 642), (643, 662), (663, 682), (683, 703), (704, 724), (725, 747), (748, 770), (771, 794), (795, 819), (820, 844), (845, 870), (871, 897), (898, 924), (925, 952), (953, 981), (982, 1011), (1012, 1042), (1043, 1074), (1075, 1106), (1107, 1139), (1140, 1175), (1176, 1211), (1212, 1247), (1248, 1287), (1288, 1326), (1327, 1366), (1367, 1407)] 84
1450
[(106, 109), (110, 113), (114, 117), (118, 121), (122, 125), (126, 129), (130, 133), (134, 137), (138, 142), (143, 146), (147, 150), (151, 155), (156, 160), (161, 165), (166, 170), (171, 175), (176, 181), (182, 187), (188, 193), (194, 199), (200, 206), (207, 213), (214, 220), (221, 227), (228, 234), (235, 242), (243, 250), (251, 258), (259, 266), (267, 275), (276, 283), (284, 292), (293, 301), (302, 310), (311, 319), (320, 329), (330, 339), (340, 350), (351, 361), (362, 373), (374, 384), (385, 395), (396, 407), (408, 420), (421, 433), (434, 447), (448, 461), (462, 476), (477, 491), (492, 506), (507, 522), (523, 538), (539, 555), (556, 572), (573, 589), (590, 606), (607, 624), (625, 642), (643, 662), (663, 682), (683, 703), (704, 724), (725, 747), (748, 770), (771, 794), (795, 819), (820, 844), (845, 870), (871, 897), (898, 924), (925, 952), (953, 981), (982, 1011), (1012, 1042), (1043, 1074), (1075, 1106), (1107, 1139), (1140, 1175), (1176, 1211), (1212, 1247), (1248, 1287), (1288, 1326), (1327, 1366), (1367, 1407), (1408, 1449)] 85
1493
[(106, 109), (110, 113), (114, 117), (118, 121), (122, 125), (126, 129), (130, 133), (134, 137), (138, 142), (143, 146), (147, 150), (151, 155), (156, 160), (161, 165), (166, 170), (171, 175), (176, 181), (182, 187), (188, 193), (194, 199), (200, 206), (207, 213), (214, 220), (221, 227), (228, 234), (235, 242), (243, 250), (251, 258), (259, 266), (267, 275), (276, 283), (284, 292), (293, 301), (302, 310), (311, 319), (320, 329), (330, 339), (340, 350), (351, 361), (362, 373), (374, 384), (385, 395), (396, 407), (408, 420), (421, 433), (434, 447), (448, 461), (462, 476), (477, 491), (492, 506), (507, 522), (523, 538), (539, 555), (556, 572), (573, 589), (590, 606), (607, 624), (625, 642), (643, 662), (663, 682), (683, 703), (704, 724), (725, 747), (748, 770), (771, 794), (795, 819), (820, 844), (845, 870), (871, 897), (898, 924), (925, 952), (953, 981), (982, 1011), (1012, 1042), (1043, 1074), (1075, 1106), (1107, 1139), (1140, 1175), (1176, 1211), (1212, 1247), (1248, 1287), (1288, 1326), (1327, 1366), (1367, 1407), (1408, 1449), (1450, 1492)] 86
1538
[(106, 109), (110, 113), (114, 117), (118, 121), (122, 125), (126, 129), (130, 133), (134, 137), (138, 142), (143, 146), (147, 150), (151, 155), (156, 160), (161, 165), (166, 170), (171, 175), (176, 181), (182, 187), (188, 193), (194, 199), (200, 206), (207, 213), (214, 220), (221, 227), (228, 234), (235, 242), (243, 250), (251, 258), (259, 266), (267, 275), (276, 283), (284, 292), (293, 301), (302, 310), (311, 319), (320, 329), (330, 339), (340, 350), (351, 361), (362, 373), (374, 384), (385, 395), (396, 407), (408, 420), (421, 433), (434, 447), (448, 461), (462, 476), (477, 491), (492, 506), (507, 522), (523, 538), (539, 555), (556, 572), (573, 589), (590, 606), (607, 624), (625, 642), (643, 662), (663, 682), (683, 703), (704, 724), (725, 747), (748, 770), (771, 794), (795, 819), (820, 844), (845, 870), (871, 897), (898, 924), (925, 952), (953, 981), (982, 1011), (1012, 1042), (1043, 1074), (1075, 1106), (1107, 1139), (1140, 1175), (1176, 1211), (1212, 1247), (1248, 1287), (1288, 1326), (1327, 1366), (1367, 1407), (1408, 1449), (1450, 1492), (1493, 1537)] 87
1584
[(106, 109), (110, 113), (114, 117), (118, 121), (122, 125), (126, 129), (130, 133), (134, 137), (138, 142), (143, 146), (147, 150), (151, 155), (156, 160), (161, 165), (166, 170), (171, 175), (176, 181), (182, 187), (188, 193), (194, 199), (200, 206), (207, 213), (214, 220), (221, 227), (228, 234), (235, 242), (243, 250), (251, 258), (259, 266), (267, 275), (276, 283), (284, 292), (293, 301), (302, 310), (311, 319), (320, 329), (330, 339), (340, 350), (351, 361), (362, 373), (374, 384), (385, 395), (396, 407), (408, 420), (421, 433), (434, 447), (448, 461), (462, 476), (477, 491), (492, 506), (507, 522), (523, 538), (539, 555), (556, 572), (573, 589), (590, 606), (607, 624), (625, 642), (643, 662), (663, 682), (683, 703), (704, 724), (725, 747), (748, 770), (771, 794), (795, 819), (820, 844), (845, 870), (871, 897), (898, 924), (925, 952), (953, 981), (982, 1011), (1012, 1042), (1043, 1074), (1075, 1106), (1107, 1139), (1140, 1175), (1176, 1211), (1212, 1247), (1248, 1287), (1288, 1326), (1327, 1366), (1367, 1407), (1408, 1449), (1450, 1492), (1493, 1537), (1538, 1583)] 88
1631
[(106, 109), (110, 113), (114, 117), (118, 121), (122, 125), (126, 129), (130, 133), (134, 137), (138, 142), (143, 146), (147, 150), (151, 155), (156, 160), (161, 165), (166, 170), (171, 175), (176, 181), (182, 187), (188, 193), (194, 199), (200, 206), (207, 213), (214, 220), (221, 227), (228, 234), (235, 242), (243, 250), (251, 258), (259, 266), (267, 275), (276, 283), (284, 292), (293, 301), (302, 310), (311, 319), (320, 329), (330, 339), (340, 350), (351, 361), (362, 373), (374, 384), (385, 395), (396, 407), (408, 420), (421, 433), (434, 447), (448, 461), (462, 476), (477, 491), (492, 506), (507, 522), (523, 538), (539, 555), (556, 572), (573, 589), (590, 606), (607, 624), (625, 642), (643, 662), (663, 682), (683, 703), (704, 724), (725, 747), (748, 770), (771, 794), (795, 819), (820, 844), (845, 870), (871, 897), (898, 924), (925, 952), (953, 981), (982, 1011), (1012, 1042), (1043, 1074), (1075, 1106), (1107, 1139), (1140, 1175), (1176, 1211), (1212, 1247), (1248, 1287), (1288, 1326), (1327, 1366), (1367, 1407), (1408, 1449), (1450, 1492), (1493, 1537), (1538, 1583), (1584, 1630)] 89
1679
[(106, 109), (110, 113), (114, 117), (118, 121), (122, 125), (126, 129), (130, 133), (134, 137), (138, 142), (143, 146), (147, 150), (151, 155), (156, 160), (161, 165), (166, 170), (171, 175), (176, 181), (182, 187), (188, 193), (194, 199), (200, 206), (207, 213), (214, 220), (221, 227), (228, 234), (235, 242), (243, 250), (251, 258), (259, 266), (267, 275), (276, 283), (284, 292), (293, 301), (302, 310), (311, 319), (320, 329), (330, 339), (340, 350), (351, 361), (362, 373), (374, 384), (385, 395), (396, 407), (408, 420), (421, 433), (434, 447), (448, 461), (462, 476), (477, 491), (492, 506), (507, 522), (523, 538), (539, 555), (556, 572), (573, 589), (590, 606), (607, 624), (625, 642), (643, 662), (663, 682), (683, 703), (704, 724), (725, 747), (748, 770), (771, 794), (795, 819), (820, 844), (845, 870), (871, 897), (898, 924), (925, 952), (953, 981), (982, 1011), (1012, 1042), (1043, 1074), (1075, 1106), (1107, 1139), (1140, 1175), (1176, 1211), (1212, 1247), (1248, 1287), (1288, 1326), (1327, 1366), (1367, 1407), (1408, 1449), (1450, 1492), (1493, 1537), (1538, 1583), (1584, 1630), (1631, 1678)] 90
1730
[(106, 109), (110, 113), (114, 117), (118, 121), (122, 125), (126, 129), (130, 133), (134, 137), (138, 142), (143, 146), (147, 150), (151, 155), (156, 160), (161, 165), (166, 170), (171, 175), (176, 181), (182, 187), (188, 193), (194, 199), (200, 206), (207, 213), (214, 220), (221, 227), (228, 234), (235, 242), (243, 250), (251, 258), (259, 266), (267, 275), (276, 283), (284, 292), (293, 301), (302, 310), (311, 319), (320, 329), (330, 339), (340, 350), (351, 361), (362, 373), (374, 384), (385, 395), (396, 407), (408, 420), (421, 433), (434, 447), (448, 461), (462, 476), (477, 491), (492, 506), (507, 522), (523, 538), (539, 555), (556, 572), (573, 589), (590, 606), (607, 624), (625, 642), (643, 662), (663, 682), (683, 703), (704, 724), (725, 747), (748, 770), (771, 794), (795, 819), (820, 844), (845, 870), (871, 897), (898, 924), (925, 952), (953, 981), (982, 1011), (1012, 1042), (1043, 1074), (1075, 1106), (1107, 1139), (1140, 1175), (1176, 1211), (1212, 1247), (1248, 1287), (1288, 1326), (1327, 1366), (1367, 1407), (1408, 1449), (1450, 1492), (1493, 1537), (1538, 1583), (1584, 1630), (1631, 1678), (1679, 1729)] 91
1782
[(106, 109), (110, 113), (114, 117), (118, 121), (122, 125), (126, 129), (130, 133), (134, 137), (138, 142), (143, 146), (147, 150), (151, 155), (156, 160), (161, 165), (166, 170), (171, 175), (176, 181), (182, 187), (188, 193), (194, 199), (200, 206), (207, 213), (214, 220), (221, 227), (228, 234), (235, 242), (243, 250), (251, 258), (259, 266), (267, 275), (276, 283), (284, 292), (293, 301), (302, 310), (311, 319), (320, 329), (330, 339), (340, 350), (351, 361), (362, 373), (374, 384), (385, 395), (396, 407), (408, 420), (421, 433), (434, 447), (448, 461), (462, 476), (477, 491), (492, 506), (507, 522), (523, 538), (539, 555), (556, 572), (573, 589), (590, 606), (607, 624), (625, 642), (643, 662), (663, 682), (683, 703), (704, 724), (725, 747), (748, 770), (771, 794), (795, 819), (820, 844), (845, 870), (871, 897), (898, 924), (925, 952), (953, 981), (982, 1011), (1012, 1042), (1043, 1074), (1075, 1106), (1107, 1139), (1140, 1175), (1176, 1211), (1212, 1247), (1248, 1287), (1288, 1326), (1327, 1366), (1367, 1407), (1408, 1449), (1450, 1492), (1493, 1537), (1538, 1583), (1584, 1630), (1631, 1678), (1679, 1729), (1730, 1781)] 92
1836
[(106, 109), (110, 113), (114, 117), (118, 121), (122, 125), (126, 129), (130, 133), (134, 137), (138, 142), (143, 146), (147, 150), (151, 155), (156, 160), (161, 165), (166, 170), (171, 175), (176, 181), (182, 187), (188, 193), (194, 199), (200, 206), (207, 213), (214, 220), (221, 227), (228, 234), (235, 242), (243, 250), (251, 258), (259, 266), (267, 275), (276, 283), (284, 292), (293, 301), (302, 310), (311, 319), (320, 329), (330, 339), (340, 350), (351, 361), (362, 373), (374, 384), (385, 395), (396, 407), (408, 420), (421, 433), (434, 447), (448, 461), (462, 476), (477, 491), (492, 506), (507, 522), (523, 538), (539, 555), (556, 572), (573, 589), (590, 606), (607, 624), (625, 642), (643, 662), (663, 682), (683, 703), (704, 724), (725, 747), (748, 770), (771, 794), (795, 819), (820, 844), (845, 870), (871, 897), (898, 924), (925, 952), (953, 981), (982, 1011), (1012, 1042), (1043, 1074), (1075, 1106), (1107, 1139), (1140, 1175), (1176, 1211), (1212, 1247), (1248, 1287), (1288, 1326), (1327, 1366), (1367, 1407), (1408, 1449), (1450, 1492), (1493, 1537), (1538, 1583), (1584, 1630), (1631, 1678), (1679, 1729), (1730, 1781), (1782, 1835)] 93
1893
[(106, 109), (110, 113), (114, 117), (118, 121), (122, 125), (126, 129), (130, 133), (134, 137), (138, 142), (143, 146), (147, 150), (151, 155), (156, 160), (161, 165), (166, 170), (171, 175), (176, 181), (182, 187), (188, 193), (194, 199), (200, 206), (207, 213), (214, 220), (221, 227), (228, 234), (235, 242), (243, 250), (251, 258), (259, 266), (267, 275), (276, 283), (284, 292), (293, 301), (302, 310), (311, 319), (320, 329), (330, 339), (340, 350), (351, 361), (362, 373), (374, 384), (385, 395), (396, 407), (408, 420), (421, 433), (434, 447), (448, 461), (462, 476), (477, 491), (492, 506), (507, 522), (523, 538), (539, 555), (556, 572), (573, 589), (590, 606), (607, 624), (625, 642), (643, 662), (663, 682), (683, 703), (704, 724), (725, 747), (748, 770), (771, 794), (795, 819), (820, 844), (845, 870), (871, 897), (898, 924), (925, 952), (953, 981), (982, 1011), (1012, 1042), (1043, 1074), (1075, 1106), (1107, 1139), (1140, 1175), (1176, 1211), (1212, 1247), (1248, 1287), (1288, 1326), (1327, 1366), (1367, 1407), (1408, 1449), (1450, 1492), (1493, 1537), (1538, 1583), (1584, 1630), (1631, 1678), (1679, 1729), (1730, 1781), (1782, 1835), (1836, 1892)] 94
1951
[(106, 109), (110, 113), (114, 117), (118, 121), (122, 125), (126, 129), (130, 133), (134, 137), (138, 142), (143, 146), (147, 150), (151, 155), (156, 160), (161, 165), (166, 170), (171, 175), (176, 181), (182, 187), (188, 193), (194, 199), (200, 206), (207, 213), (214, 220), (221, 227), (228, 234), (235, 242), (243, 250), (251, 258), (259, 266), (267, 275), (276, 283), (284, 292), (293, 301), (302, 310), (311, 319), (320, 329), (330, 339), (340, 350), (351, 361), (362, 373), (374, 384), (385, 395), (396, 407), (408, 420), (421, 433), (434, 447), (448, 461), (462, 476), (477, 491), (492, 506), (507, 522), (523, 538), (539, 555), (556, 572), (573, 589), (590, 606), (607, 624), (625, 642), (643, 662), (663, 682), (683, 703), (704, 724), (725, 747), (748, 770), (771, 794), (795, 819), (820, 844), (845, 870), (871, 897), (898, 924), (925, 952), (953, 981), (982, 1011), (1012, 1042), (1043, 1074), (1075, 1106), (1107, 1139), (1140, 1175), (1176, 1211), (1212, 1247), (1248, 1287), (1288, 1326), (1327, 1366), (1367, 1407), (1408, 1449), (1450, 1492), (1493, 1537), (1538, 1583), (1584, 1630), (1631, 1678), (1679, 1729), (1730, 1781), (1782, 1835), (1836, 1892), (1893, 1950)] 95
2011
[(106, 109), (110, 113), (114, 117), (118, 121), (122, 125), (126, 129), (130, 133), (134, 137), (138, 142), (143, 146), (147, 150), (151, 155), (156, 160), (161, 165), (166, 170), (171, 175), (176, 181), (182, 187), (188, 193), (194, 199), (200, 206), (207, 213), (214, 220), (221, 227), (228, 234), (235, 242), (243, 250), (251, 258), (259, 266), (267, 275), (276, 283), (284, 292), (293, 301), (302, 310), (311, 319), (320, 329), (330, 339), (340, 350), (351, 361), (362, 373), (374, 384), (385, 395), (396, 407), (408, 420), (421, 433), (434, 447), (448, 461), (462, 476), (477, 491), (492, 506), (507, 522), (523, 538), (539, 555), (556, 572), (573, 589), (590, 606), (607, 624), (625, 642), (643, 662), (663, 682), (683, 703), (704, 724), (725, 747), (748, 770), (771, 794), (795, 819), (820, 844), (845, 870), (871, 897), (898, 924), (925, 952), (953, 981), (982, 1011), (1012, 1042), (1043, 1074), (1075, 1106), (1107, 1139), (1140, 1175), (1176, 1211), (1212, 1247), (1248, 1287), (1288, 1326), (1327, 1366), (1367, 1407), (1408, 1449), (1450, 1492), (1493, 1537), (1538, 1583), (1584, 1630), (1631, 1678), (1679, 1729), (1730, 1781), (1782, 1835), (1836, 1892), (1893, 1950), (1951, 2010)] 96
2073
[(106, 109), (110, 113), (114, 117), (118, 121), (122, 125), (126, 129), (130, 133), (134, 137), (138, 142), (143, 146), (147, 150), (151, 155), (156, 160), (161, 165), (166, 170), (171, 175), (176, 181), (182, 187), (188, 193), (194, 199), (200, 206), (207, 213), (214, 220), (221, 227), (228, 234), (235, 242), (243, 250), (251, 258), (259, 266), (267, 275), (276, 283), (284, 292), (293, 301), (302, 310), (311, 319), (320, 329), (330, 339), (340, 350), (351, 361), (362, 373), (374, 384), (385, 395), (396, 407), (408, 420), (421, 433), (434, 447), (448, 461), (462, 476), (477, 491), (492, 506), (507, 522), (523, 538), (539, 555), (556, 572), (573, 589), (590, 606), (607, 624), (625, 642), (643, 662), (663, 682), (683, 703), (704, 724), (725, 747), (748, 770), (771, 794), (795, 819), (820, 844), (845, 870), (871, 897), (898, 924), (925, 952), (953, 981), (982, 1011), (1012, 1042), (1043, 1074), (1075, 1106), (1107, 1139), (1140, 1175), (1176, 1211), (1212, 1247), (1248, 1287), (1288, 1326), (1327, 1366), (1367, 1407), (1408, 1449), (1450, 1492), (1493, 1537), (1538, 1583), (1584, 1630), (1631, 1678), (1679, 1729), (1730, 1781), (1782, 1835), (1836, 1892), (1893, 1950), (1951, 2010), (2011, 2072)] 97
2136
[(106, 109), (110, 113), (114, 117), (118, 121), (122, 125), (126, 129), (130, 133), (134, 137), (138, 142), (143, 146), (147, 150), (151, 155), (156, 160), (161, 165), (166, 170), (171, 175), (176, 181), (182, 187), (188, 193), (194, 199), (200, 206), (207, 213), (214, 220), (221, 227), (228, 234), (235, 242), (243, 250), (251, 258), (259, 266), (267, 275), (276, 283), (284, 292), (293, 301), (302, 310), (311, 319), (320, 329), (330, 339), (340, 350), (351, 361), (362, 373), (374, 384), (385, 395), (396, 407), (408, 420), (421, 433), (434, 447), (448, 461), (462, 476), (477, 491), (492, 506), (507, 522), (523, 538), (539, 555), (556, 572), (573, 589), (590, 606), (607, 624), (625, 642), (643, 662), (663, 682), (683, 703), (704, 724), (725, 747), (748, 770), (771, 794), (795, 819), (820, 844), (845, 870), (871, 897), (898, 924), (925, 952), (953, 981), (982, 1011), (1012, 1042), (1043, 1074), (1075, 1106), (1107, 1139), (1140, 1175), (1176, 1211), (1212, 1247), (1248, 1287), (1288, 1326), (1327, 1366), (1367, 1407), (1408, 1449), (1450, 1492), (1493, 1537), (1538, 1583), (1584, 1630), (1631, 1678), (1679, 1729), (1730, 1781), (1782, 1835), (1836, 1892), (1893, 1950), (1951, 2010), (2011, 2072), (2073, 2135)] 98
2201
[(106, 109), (110, 113), (114, 117), (118, 121), (122, 125), (126, 129), (130, 133), (134, 137), (138, 142), (143, 146), (147, 150), (151, 155), (156, 160), (161, 165), (166, 170), (171, 175), (176, 181), (182, 187), (188, 193), (194, 199), (200, 206), (207, 213), (214, 220), (221, 227), (228, 234), (235, 242), (243, 250), (251, 258), (259, 266), (267, 275), (276, 283), (284, 292), (293, 301), (302, 310), (311, 319), (320, 329), (330, 339), (340, 350), (351, 361), (362, 373), (374, 384), (385, 395), (396, 407), (408, 420), (421, 433), (434, 447), (448, 461), (462, 476), (477, 491), (492, 506), (507, 522), (523, 538), (539, 555), (556, 572), (573, 589), (590, 606), (607, 624), (625, 642), (643, 662), (663, 682), (683, 703), (704, 724), (725, 747), (748, 770), (771, 794), (795, 819), (820, 844), (845, 870), (871, 897), (898, 924), (925, 952), (953, 981), (982, 1011), (1012, 1042), (1043, 1074), (1075, 1106), (1107, 1139), (1140, 1175), (1176, 1211), (1212, 1247), (1248, 1287), (1288, 1326), (1327, 1366), (1367, 1407), (1408, 1449), (1450, 1492), (1493, 1537), (1538, 1583), (1584, 1630), (1631, 1678), (1679, 1729), (1730, 1781), (1782, 1835), (1836, 1892), (1893, 1950), (1951, 2010), (2011, 2072), (2073, 2135), (2136, 2200)] 99
2267
[(106, 109), (110, 113), (114, 117), (118, 121), (122, 125), (126, 129), (130, 133), (134, 137), (138, 142), (143, 146), (147, 150), (151, 155), (156, 160), (161, 165), (166, 170), (171, 175), (176, 181), (182, 187), (188, 193), (194, 199), (200, 206), (207, 213), (214, 220), (221, 227), (228, 234), (235, 242), (243, 250), (251, 258), (259, 266), (267, 275), (276, 283), (284, 292), (293, 301), (302, 310), (311, 319), (320, 329), (330, 339), (340, 350), (351, 361), (362, 373), (374, 384), (385, 395), (396, 407), (408, 420), (421, 433), (434, 447), (448, 461), (462, 476), (477, 491), (492, 506), (507, 522), (523, 538), (539, 555), (556, 572), (573, 589), (590, 606), (607, 624), (625, 642), (643, 662), (663, 682), (683, 703), (704, 724), (725, 747), (748, 770), (771, 794), (795, 819), (820, 844), (845, 870), (871, 897), (898, 924), (925, 952), (953, 981), (982, 1011), (1012, 1042), (1043, 1074), (1075, 1106), (1107, 1139), (1140, 1175), (1176, 1211), (1212, 1247), (1248, 1287), (1288, 1326), (1327, 1366), (1367, 1407), (1408, 1449), (1450, 1492), (1493, 1537), (1538, 1583), (1584, 1630), (1631, 1678), (1679, 1729), (1730, 1781), (1782, 1835), (1836, 1892), (1893, 1950), (1951, 2010), (2011, 2072), (2073, 2135), (2136, 2200), (2201, 2266)] 100
2336
[(106, 109), (110, 113), (114, 117), (118, 121), (122, 125), (126, 129), (130, 133), (134, 137), (138, 142), (143, 146), (147, 150), (151, 155), (156, 160), (161, 165), (166, 170), (171, 175), (176, 181), (182, 187), (188, 193), (194, 199), (200, 206), (207, 213), (214, 220), (221, 227), (228, 234), (235, 242), (243, 250), (251, 258), (259, 266), (267, 275), (276, 283), (284, 292), (293, 301), (302, 310), (311, 319), (320, 329), (330, 339), (340, 350), (351, 361), (362, 373), (374, 384), (385, 395), (396, 407), (408, 420), (421, 433), (434, 447), (448, 461), (462, 476), (477, 491), (492, 506), (507, 522), (523, 538), (539, 555), (556, 572), (573, 589), (590, 606), (607, 624), (625, 642), (643, 662), (663, 682), (683, 703), (704, 724), (725, 747), (748, 770), (771, 794), (795, 819), (820, 844), (845, 870), (871, 897), (898, 924), (925, 952), (953, 981), (982, 1011), (1012, 1042), (1043, 1074), (1075, 1106), (1107, 1139), (1140, 1175), (1176, 1211), (1212, 1247), (1248, 1287), (1288, 1326), (1327, 1366), (1367, 1407), (1408, 1449), (1450, 1492), (1493, 1537), (1538, 1583), (1584, 1630), (1631, 1678), (1679, 1729), (1730, 1781), (1782, 1835), (1836, 1892), (1893, 1950), (1951, 2010), (2011, 2072), (2073, 2135), (2136, 2200), (2201, 2266), (2267, 2335)] 101
2408
[(106, 109), (110, 113), (114, 117), (118, 121), (122, 125), (126, 129), (130, 133), (134, 137), (138, 142), (143, 146), (147, 150), (151, 155), (156, 160), (161, 165), (166, 170), (171, 175), (176, 181), (182, 187), (188, 193), (194, 199), (200, 206), (207, 213), (214, 220), (221, 227), (228, 234), (235, 242), (243, 250), (251, 258), (259, 266), (267, 275), (276, 283), (284, 292), (293, 301), (302, 310), (311, 319), (320, 329), (330, 339), (340, 350), (351, 361), (362, 373), (374, 384), (385, 395), (396, 407), (408, 420), (421, 433), (434, 447), (448, 461), (462, 476), (477, 491), (492, 506), (507, 522), (523, 538), (539, 555), (556, 572), (573, 589), (590, 606), (607, 624), (625, 642), (643, 662), (663, 682), (683, 703), (704, 724), (725, 747), (748, 770), (771, 794), (795, 819), (820, 844), (845, 870), (871, 897), (898, 924), (925, 952), (953, 981), (982, 1011), (1012, 1042), (1043, 1074), (1075, 1106), (1107, 1139), (1140, 1175), (1176, 1211), (1212, 1247), (1248, 1287), (1288, 1326), (1327, 1366), (1367, 1407), (1408, 1449), (1450, 1492), (1493, 1537), (1538, 1583), (1584, 1630), (1631, 1678), (1679, 1729), (1730, 1781), (1782, 1835), (1836, 1892), (1893, 1950), (1951, 2010), (2011, 2072), (2073, 2135), (2136, 2200), (2201, 2266), (2267, 2335), (2336, 2407)] 102
2481
[(106, 109), (110, 113), (114, 117), (118, 121), (122, 125), (126, 129), (130, 133), (134, 137), (138, 142), (143, 146), (147, 150), (151, 155), (156, 160), (161, 165), (166, 170), (171, 175), (176, 181), (182, 187), (188, 193), (194, 199), (200, 206), (207, 213), (214, 220), (221, 227), (228, 234), (235, 242), (243, 250), (251, 258), (259, 266), (267, 275), (276, 283), (284, 292), (293, 301), (302, 310), (311, 319), (320, 329), (330, 339), (340, 350), (351, 361), (362, 373), (374, 384), (385, 395), (396, 407), (408, 420), (421, 433), (434, 447), (448, 461), (462, 476), (477, 491), (492, 506), (507, 522), (523, 538), (539, 555), (556, 572), (573, 589), (590, 606), (607, 624), (625, 642), (643, 662), (663, 682), (683, 703), (704, 724), (725, 747), (748, 770), (771, 794), (795, 819), (820, 844), (845, 870), (871, 897), (898, 924), (925, 952), (953, 981), (982, 1011), (1012, 1042), (1043, 1074), (1075, 1106), (1107, 1139), (1140, 1175), (1176, 1211), (1212, 1247), (1248, 1287), (1288, 1326), (1327, 1366), (1367, 1407), (1408, 1449), (1450, 1492), (1493, 1537), (1538, 1583), (1584, 1630), (1631, 1678), (1679, 1729), (1730, 1781), (1782, 1835), (1836, 1892), (1893, 1950), (1951, 2010), (2011, 2072), (2073, 2135), (2136, 2200), (2201, 2266), (2267, 2335), (2336, 2407), (2408, 2480)] 103
Number of bands in the output file: 210
Copying protected bands
[2500, 1, 790340, 2]
[210, 1, 790340, 2]
210
106
Creating 104 superbands
106

All done!
